case_study/opendss_scripts/LVTestCase/di_col_700_Curr_Elem.Txt

CIRCUIT ELEMENT CURRENTS

(Currents into element from indicated bus)

Power Delivery Elements

  Bus     Phase    Magnitude, A     Angle      (Real)   +j  (Imag)

ELEMENT = "Vsource.SOURCE"
SOURCEBUS     1       0.00084922 /_  171.8 =  -0.00084062 +j 0.00012061
SOURCEBUS     2       0.00084922 /_   51.8 =  0.00052476 +j 0.00066769
SOURCEBUS     3       0.00084922 /_  -68.2 =  0.00031586 +j -0.0007883
------------
SOURCEBUS     0       0.00084922 /_   -8.2 =  0.00084062 +j -0.00012061
SOURCEBUS     0       0.00084922 /_ -128.2 =  -0.00052476 +j -0.00066769
SOURCEBUS     0       0.00084922 /_  111.8 =  -0.00031586 +j 0.0007883

ELEMENT = "Transformer.TR1"
SOURCEBUS     1       0.00084922 /_   -8.2 =  0.00084062 +j -0.00012061
SOURCEBUS     2       0.00084922 /_ -128.2 =  -0.00052476 +j -0.00066769
SOURCEBUS     3       0.00084922 /_  111.8 =  -0.00031586 +j 0.0007883
SOURCEBUS     0                0 /_    0.0 =          0 +j         0
------------
1             1         0.023232 /_  144.3 =  -0.018867 +j  0.013556
1             2         0.023232 /_   24.3 =   0.021173 +j 0.0095611
1             3         0.023232 /_  -95.7 =  -0.0023064 +j -0.023117
1             0       6.265E-011 /_  103.4 =  -1.4552E-011 +j 6.0936E-011

ELEMENT = "Line.LINE1"
1             1         0.023232 /_  -35.7 =   0.018867 +j -0.013556
1             2         0.023232 /_ -155.7 =  -0.021173 +j -0.0095611
1             3         0.023232 /_   84.3 =  0.0023064 +j  0.023117
------------
2             1         0.023232 /_  144.3 =  -0.018867 +j  0.013556
2             2         0.023232 /_   24.3 =   0.021173 +j 0.0095611
2             3         0.023232 /_  -95.7 =  -0.0023064 +j -0.023117

ELEMENT = "Line.LINE2"
2             1           2.9291 /_  -48.1 =     1.9553 +j   -2.1809
2             2           2.9291 /_ -168.1 =    -2.8664 +j  -0.60292
2             3           2.9291 /_   71.9 =    0.91104 +j    2.7838
------------
3             1           2.9291 /_  131.9 =    -1.9553 +j    2.1809
3             2           2.9291 /_   11.9 =     2.8664 +j   0.60292
3             3           2.9291 /_ -108.1 =   -0.91104 +j   -2.7838

ELEMENT = "Line.LINE3"
3             1           2.9291 /_  -48.1 =     1.9553 +j   -2.1809
3             2           2.9291 /_ -168.1 =    -2.8664 +j  -0.60292
3             3           2.9291 /_   71.9 =    0.91104 +j    2.7838
------------
10            1           2.9291 /_  131.9 =    -1.9553 +j    2.1809
10            2           2.9291 /_   11.9 =     2.8664 +j   0.60292
10            3           2.9291 /_ -108.1 =   -0.91104 +j   -2.7838

ELEMENT = "Line.LINE4"
10            1          0.40329 /_  131.4 =   -0.26648 +j    0.3027
10            2          0.40329 /_   11.4 =    0.39539 +j  0.079425
10            3          0.40329 /_ -108.6 =   -0.12891 +j  -0.38213
------------
11            1          0.40329 /_  -48.6 =    0.26648 +j   -0.3027
11            2          0.40329 /_ -168.6 =   -0.39539 +j -0.079425
11            3          0.40329 /_   71.4 =    0.12891 +j   0.38213

ELEMENT = "Line.LINE5"
11            1           4.7728 /_  -48.2 =     3.1838 +j   -3.5557
11            2           4.7728 /_ -168.2 =    -4.6712 +j  -0.97942
11            3           4.7728 /_   71.8 =     1.4874 +j    4.5351
------------
12            1           4.7728 /_  131.8 =    -3.1838 +j    3.5557
12            2           4.7728 /_   11.8 =     4.6712 +j   0.97942
12            3           4.7728 /_ -108.2 =    -1.4874 +j   -4.5351

ELEMENT = "Line.LINE6"
12            1            4.827 /_  -48.2 =     3.2198 +j   -3.5962
12            2            4.827 /_ -168.2 =    -4.7243 +j  -0.99033
12            3            4.827 /_   71.8 =     1.5045 +j    4.5865
------------
13            1            4.827 /_  131.8 =    -3.2198 +j    3.5962
13            2            4.827 /_   11.8 =     4.7243 +j   0.99033
13            3            4.827 /_ -108.2 =    -1.5045 +j   -4.5865

ELEMENT = "Line.LINE7"
13            1           2.4377 /_  131.8 =     -1.625 +j     1.817
13            2           2.4377 /_   11.8 =     2.3861 +j   0.49883
13            3           2.4377 /_ -108.2 =   -0.76106 +j   -2.3158
------------
14            1           2.4377 /_  -48.2 =      1.625 +j    -1.817
14            2           2.4377 /_ -168.2 =    -2.3861 +j  -0.49883
14            3           2.4377 /_   71.8 =    0.76106 +j    2.3158

ELEMENT = "Line.LINE8"
10            1           4.3918 /_  -48.2 =      2.928 +j   -3.2733
10            2           4.3918 /_ -168.2 =    -4.2987 +j   -0.8991
10            3           4.3918 /_   71.8 =     1.3707 +j    4.1724
------------
100           1           4.3918 /_  131.8 =     -2.928 +j    3.2733
100           2           4.3918 /_   11.8 =     4.2987 +j    0.8991
100           3           4.3918 /_ -108.2 =    -1.3707 +j   -4.1724

ELEMENT = "Line.LINE9"
11            1           2.7218 /_  131.8 =    -1.8143 +j    2.0289
11            2           2.7218 /_   11.8 =     2.6643 +j   0.55679
11            3           2.7218 /_ -108.2 =   -0.84995 +j   -2.5857
------------
110           1           2.7218 /_  -48.2 =     1.8143 +j   -2.0289
110           2           2.7218 /_ -168.2 =    -2.6643 +j  -0.55679
110           3           2.7218 /_   71.8 =    0.84995 +j    2.5857

ELEMENT = "Line.LINE10"
12            1           2.0813 /_  131.8 =    -1.3874 +j    1.5514
12            2           2.0813 /_   11.8 =     2.0373 +j   0.42585
12            3           2.0813 /_ -108.2 =   -0.64984 +j   -1.9773
------------
120           1           2.0813 /_  -48.2 =     1.3874 +j   -1.5514
120           2           2.0813 /_ -168.2 =    -2.0373 +j  -0.42585
120           3           2.0813 /_   71.8 =    0.64984 +j    1.9773

ELEMENT = "Line.LINE11"
13            1           9.6576 /_  -48.2 =       6.44 +j   -7.1968
13            2           9.6576 /_ -168.2 =    -9.4527 +j   -1.9788
13            3           9.6576 /_   71.8 =     3.0126 +j    9.1757
------------
130           1           9.6576 /_  131.8 =      -6.44 +j    7.1968
130           2           9.6576 /_   11.8 =     9.4527 +j    1.9788
130           3           9.6576 /_ -108.2 =    -3.0126 +j   -9.1757

ELEMENT = "Line.LINE12"
14            1          0.47196 /_  131.8 =   -0.31463 +j   0.35178
14            2          0.47196 /_   11.8 =    0.46197 +j  0.096589
14            3          0.47196 /_ -108.2 =   -0.14733 +j  -0.44837
------------
140           1          0.47196 /_  -48.2 =    0.31463 +j  -0.35178
140           2          0.47196 /_ -168.2 =   -0.46197 +j -0.096589
140           3          0.47196 /_   71.8 =    0.14733 +j   0.44837

ELEMENT = "Line.LINE13"
10            1           1.0594 /_  131.8 =   -0.70621 +j   0.78968
10            2           1.0594 /_   11.8 =      1.037 +j   0.21676
10            3           1.0594 /_ -108.2 =   -0.33078 +j   -1.0064
------------
101           1           1.0594 /_  -48.2 =    0.70621 +j  -0.78968
101           2           1.0594 /_ -168.2 =     -1.037 +j  -0.21676
101           3           1.0594 /_   71.8 =    0.33078 +j    1.0064

ELEMENT = "Line.LINE14"
11            1           2.4542 /_  131.8 =    -1.6359 +j    1.8294
11            2           2.4542 /_   11.8 =     2.4023 +j   0.50206
11            3           2.4542 /_ -108.2 =   -0.76636 +j   -2.3315
------------
111           1           2.4542 /_  -48.2 =     1.6359 +j   -1.8294
111           2           2.4542 /_ -168.2 =    -2.4023 +j  -0.50206
111           3           2.4542 /_   71.8 =    0.76636 +j    2.3315

ELEMENT = "Line.LINE15"
12            1           2.0271 /_  -48.2 =     1.3514 +j   -1.5109
12            2           2.0271 /_ -168.2 =    -1.9842 +j  -0.41494
12            3           2.0271 /_   71.8 =    0.63273 +j    1.9258
------------
121           1           2.0271 /_  131.8 =    -1.3514 +j    1.5109
121           2           2.0271 /_   11.8 =     1.9842 +j   0.41494
121           3           2.0271 /_ -108.2 =   -0.63273 +j   -1.9258

ELEMENT = "Line.LINE16"
13            1           2.3929 /_  131.8 =    -1.5952 +j    1.7836
13            2           2.3929 /_   11.8 =     2.3422 +j   0.48965
13            3           2.3929 /_ -108.2 =   -0.74707 +j   -2.2733
------------
131           1           2.3929 /_  -48.2 =     1.5952 +j   -1.7836
131           2           2.3929 /_ -168.2 =    -2.3422 +j  -0.48965
131           3           2.3929 /_   71.8 =    0.74707 +j    2.2733

ELEMENT = "Line.LINE17"
14            1           1.9657 /_  131.8 =    -1.3104 +j    1.4652
14            2           1.9657 /_   11.8 =     1.9241 +j   0.40224
14            3           1.9657 /_ -108.2 =   -0.61372 +j   -1.8675
------------
141           1           1.9657 /_  -48.2 =     1.3104 +j   -1.4652
141           2           1.9657 /_ -168.2 =    -1.9241 +j  -0.40224
141           3           1.9657 /_   71.8 =    0.61372 +j    1.8675

ELEMENT = "Line.LINE18"
2             1           2.9064 /_  131.8 =    -1.9365 +j    2.1673
2             2           2.9064 /_   11.8 =     2.8452 +j   0.59336
2             3           2.9064 /_ -108.2 =   -0.90873 +j   -2.7607
------------
4             1           2.9064 /_  -48.2 =     1.9365 +j   -2.1673
4             2           2.9064 /_ -168.2 =    -2.8452 +j  -0.59336
4             3           2.9064 /_   71.8 =    0.90873 +j    2.7607

ELEMENT = "Line.LINE19"
4             1           2.9064 /_  131.8 =    -1.9365 +j    2.1673
4             2           2.9064 /_   11.8 =     2.8452 +j   0.59336
4             3           2.9064 /_ -108.2 =   -0.90873 +j   -2.7607
------------
20            1           2.9064 /_  -48.2 =     1.9365 +j   -2.1673
20            2           2.9064 /_ -168.2 =    -2.8452 +j  -0.59336
20            3           2.9064 /_   71.8 =    0.90873 +j    2.7607

ELEMENT = "Line.LINE20"
20            1           2.1793 /_  131.8 =    -1.4519 +j    1.6252
20            2           2.1793 /_   11.8 =     2.1335 +j   0.44478
20            3           2.1793 /_ -108.2 =   -0.68154 +j     -2.07
------------
21            1           2.1793 /_  -48.2 =     1.4519 +j   -1.6252
21            2           2.1793 /_ -168.2 =    -2.1335 +j  -0.44478
21            3           2.1793 /_   71.8 =    0.68154 +j      2.07

ELEMENT = "Line.LINE21"
21            1           4.5925 /_  131.8 =    -3.0605 +j    3.4241
21            2           4.5925 /_   11.8 =     4.4956 +j   0.93842
21            3           4.5925 /_ -108.2 =    -1.4351 +j   -4.3625
------------
22            1           4.5925 /_  -48.2 =     3.0605 +j   -3.4241
22            2           4.5925 /_ -168.2 =    -4.4956 +j  -0.93842
22            3           4.5925 /_   71.8 =     1.4351 +j    4.3625

ELEMENT = "Line.LINE22"
22            1           4.9063 /_  131.8 =    -3.2697 +j     3.658
22            2           4.9063 /_   11.8 =     4.8028 +j    1.0026
22            3           4.9063 /_ -108.2 =    -1.5331 +j   -4.6606
------------
23            1           4.9063 /_  -48.2 =     3.2697 +j    -3.658
23            2           4.9063 /_ -168.2 =    -4.8028 +j   -1.0026
23            3           4.9063 /_   71.8 =     1.5331 +j    4.6606

ELEMENT = "Line.LINE23"
23            1           4.6598 /_  131.8 =    -3.1056 +j    3.4742
23            2           4.6598 /_   11.8 =     4.5615 +j   0.95241
23            3           4.6598 /_ -108.2 =    -1.4559 +j   -4.4266
------------
24            1           4.6598 /_  -48.2 =     3.1056 +j   -3.4742
24            2           4.6598 /_ -168.2 =    -4.5615 +j  -0.95241
24            3           4.6598 /_   71.8 =     1.4559 +j    4.4266

ELEMENT = "Line.LINE24"
20            1           2.0755 /_  131.8 =    -1.3834 +j    1.5472
20            2           2.0755 /_   11.8 =     2.0316 +j   0.42441
20            3           2.0755 /_ -108.2 =   -0.64825 +j   -1.9716
------------
200           1           2.0755 /_  -48.2 =     1.3834 +j   -1.5472
200           2           2.0755 /_ -168.2 =    -2.0316 +j  -0.42441
200           3           2.0755 /_   71.8 =    0.64825 +j    1.9716

ELEMENT = "Line.LINE25"
21            1          0.33993 /_  -48.2 =    0.22658 +j   -0.2534
21            2          0.33993 /_ -168.2 =   -0.33274 +j -0.069527
21            3          0.33993 /_   71.8 =    0.10616 +j   0.32293
------------
210           1          0.33993 /_  131.8 =   -0.22658 +j    0.2534
210           2          0.33993 /_   11.8 =    0.33274 +j  0.069527
210           3          0.33993 /_ -108.2 =   -0.10616 +j  -0.32293

ELEMENT = "Line.LINE26"
22            1          0.55248 /_  -48.2 =    0.36825 +j  -0.41186
22            2          0.55248 /_ -168.2 =    -0.5408 +j  -0.11299
22            3          0.55248 /_   71.8 =    0.17255 +j   0.52484
------------
220           1          0.55248 /_  131.8 =   -0.36825 +j   0.41186
220           2          0.55248 /_   11.8 =     0.5408 +j   0.11299
220           3          0.55248 /_ -108.2 =   -0.17255 +j  -0.52484

ELEMENT = "Line.LINE27"
23            1           1.9422 /_  -48.2 =     1.2946 +j   -1.4479
23            2           1.9422 /_ -168.2 =    -1.9012 +j  -0.39721
23            3           1.9422 /_   71.8 =     0.6066 +j    1.8451
------------
230           1           1.9422 /_  131.8 =    -1.2946 +j    1.4479
230           2           1.9422 /_   11.8 =     1.9012 +j   0.39721
230           3           1.9422 /_ -108.2 =    -0.6066 +j   -1.8451

ELEMENT = "Line.LINE28"
24            1            2.499 /_  131.8 =    -1.6654 +j    1.8631
24            2            2.499 /_   11.8 =     2.4462 +j   0.51075
24            3            2.499 /_ -108.2 =    -0.7808 +j   -2.3739
------------
240           1            2.499 /_  -48.2 =     1.6654 +j   -1.8631
240           2            2.499 /_ -168.2 =    -2.4462 +j  -0.51075
240           3            2.499 /_   71.8 =     0.7808 +j    2.3739

ELEMENT = "Line.LINE29"
20            1           1.3484 /_  -48.2 =    0.89882 +j   -1.0051
20            2           1.3484 /_ -168.2 =    -1.3199 +j  -0.27584
20            3           1.3484 /_   71.8 =    0.42105 +j     1.281
------------
201           1           1.3484 /_  131.8 =   -0.89882 +j    1.0051
201           2           1.3484 /_   11.8 =     1.3199 +j   0.27584
201           3           1.3484 /_ -108.2 =   -0.42105 +j    -1.281

ELEMENT = "Line.LINE30"
21            1           2.0732 /_  -48.2 =      1.382 +j   -1.5454
21            2           2.0732 /_ -168.2 =    -2.0293 +j  -0.42411
21            3           2.0732 /_   71.8 =    0.64738 +j    1.9695
------------
211           1           2.0732 /_  131.8 =     -1.382 +j    1.5454
211           2           2.0732 /_   11.8 =     2.0293 +j   0.42411
211           3           2.0732 /_ -108.2 =   -0.64738 +j   -1.9695

ELEMENT = "Line.LINE31"
22            1          0.23862 /_  131.8 =   -0.15905 +j   0.17789
22            2          0.23862 /_   11.8 =    0.23358 +j  0.048795
22            3          0.23862 /_ -108.2 =   -0.07453 +j  -0.22668
------------
221           1          0.23862 /_  -48.2 =    0.15905 +j  -0.17789
221           2          0.23862 /_ -168.2 =   -0.23358 +j -0.048795
221           3          0.23862 /_   71.8 =    0.07453 +j   0.22668

ELEMENT = "Line.LINE32"
23            1           2.1887 /_  131.8 =    -1.4587 +j    1.6317
23            2           2.1887 /_   11.8 =     2.1425 +j   0.44741
23            3           2.1887 /_ -108.2 =   -0.68377 +j   -2.0792
------------
231           1           2.1887 /_  -48.2 =     1.4587 +j   -1.6317
231           2           2.1887 /_ -168.2 =    -2.1425 +j  -0.44741
231           3           2.1887 /_   71.8 =    0.68377 +j    2.0792

ELEMENT = "Line.LINE33"
24            1           2.1609 /_  131.8 =    -1.4401 +j     1.611
24            2           2.1609 /_   11.8 =     2.1152 +j   0.44166
24            3           2.1609 /_ -108.2 =   -0.67513 +j   -2.0527
------------
241           1           2.1609 /_  -48.2 =     1.4401 +j    -1.611
241           2           2.1609 /_ -168.2 =    -2.1152 +j  -0.44166
241           3           2.1609 /_   71.8 =    0.67513 +j    2.0527

= = = = = = = = = = = = = = = = = = =  = = = = = = = = = = =  = =

Power Conversion Elements

  Bus     Phase    Magnitude, A     Angle      (Real)   +j  (Imag)

ELEMENT = "Load.LOAD1"
100           1           4.3918 /_  -48.2 =      2.928 +j   -3.2733
100           2           4.3918 /_ -168.2 =    -4.2987 +j   -0.8991
100           3           4.3918 /_   71.8 =     1.3707 +j    4.1724
100           0      8.5767E-010 /_  131.8 =  -5.7193E-010 +j 6.3914E-010

ELEMENT = "Load.LOAD2"
110           1           2.7218 /_  131.8 =    -1.8143 +j    2.0289
110           2           2.7218 /_   11.8 =     2.6643 +j   0.55679
110           3           2.7218 /_ -108.2 =   -0.84995 +j   -2.5857
110           0      5.3119E-010 /_  -48.2 =  3.5409E-010 +j -3.9596E-010

ELEMENT = "Load.LOAD3"
120           1           2.0813 /_  131.8 =    -1.3874 +j    1.5514
120           2           2.0813 /_   11.8 =     2.0373 +j   0.42585
120           3           2.0813 /_ -108.2 =   -0.64985 +j   -1.9773
120           0      4.0629E-010 /_  -48.2 =  2.7086E-010 +j -3.0283E-010

ELEMENT = "Load.LOAD4"
130           1           9.6576 /_  -48.2 =       6.44 +j   -7.1968
130           2           9.6576 /_ -168.2 =    -9.4527 +j   -1.9788
130           3           9.6576 /_   71.8 =     3.0126 +j    9.1757
130           0      1.8876E-009 /_  131.8 =  -1.2593E-009 +j 1.4062E-009

ELEMENT = "Load.LOAD5"
140           1          0.47196 /_  131.8 =   -0.31463 +j   0.35178
140           2          0.47196 /_   11.8 =    0.46197 +j  0.096589
140           3          0.47196 /_ -108.2 =   -0.14733 +j  -0.44837
140           0      9.2152E-011 /_  -48.2 =  6.1442E-011 +j -6.868E-011

ELEMENT = "Load.LOAD6"
101           1           1.0594 /_  131.8 =   -0.70621 +j   0.78968
101           2           1.0594 /_   11.8 =      1.037 +j   0.21676
101           3           1.0594 /_ -108.2 =   -0.33078 +j   -1.0064
101           0      2.0679E-010 /_  -48.2 =  1.3785E-010 +j -1.5413E-010

ELEMENT = "Load.LOAD7"
111           1           2.4542 /_  131.8 =    -1.6359 +j    1.8294
111           2           2.4542 /_   11.8 =     2.4023 +j   0.50206
111           3           2.4542 /_ -108.2 =   -0.76636 +j   -2.3315
111           0      4.7897E-010 /_  -48.2 =  3.1929E-010 +j -3.5703E-010

ELEMENT = "Load.LOAD8"
121           1           2.0271 /_  -48.2 =     1.3514 +j   -1.5109
121           2           2.0271 /_ -168.2 =    -1.9842 +j  -0.41494
121           3           2.0271 /_   71.8 =    0.63273 +j    1.9258
121           0      3.9585E-010 /_  131.8 =  -2.6396E-010 +j 2.95E-010

ELEMENT = "Load.LOAD9"
131           1           2.3929 /_  131.8 =    -1.5952 +j    1.7836
131           2           2.3929 /_   11.8 =     2.3422 +j   0.48965
131           3           2.3929 /_ -108.2 =   -0.74707 +j   -2.2733
131           0      4.6718E-010 /_  -48.2 =  3.1147E-010 +j -3.482E-010

ELEMENT = "Load.LOAD10"
141           1           1.9657 /_  131.8 =    -1.3104 +j    1.4652
141           2           1.9657 /_   11.8 =     1.9241 +j   0.40224
141           3           1.9657 /_ -108.2 =   -0.61372 +j   -1.8675
141           0      3.8377E-010 /_  -48.2 =  2.5585E-010 +j -2.8603E-010

ELEMENT = "Load.LOAD11"
200           1           2.0755 /_  131.8 =    -1.3834 +j    1.5472
200           2           2.0755 /_   11.8 =     2.0316 +j   0.42441
200           3           2.0755 /_ -108.2 =   -0.64825 +j   -1.9716
200           0      4.0484E-010 /_  -48.2 =  2.6982E-010 +j -3.0182E-010

ELEMENT = "Load.LOAD12"
210           1          0.33993 /_  -48.2 =    0.22658 +j   -0.2534
210           2          0.33993 /_ -168.2 =   -0.33274 +j -0.069527
210           3          0.33993 /_   71.8 =    0.10616 +j   0.32293
210           0      6.6317E-011 /_  131.8 =  -4.4203E-011 +j 4.9436E-011

ELEMENT = "Load.LOAD13"
220           1          0.55248 /_  -48.2 =    0.36825 +j  -0.41186
220           2          0.55248 /_ -168.2 =    -0.5408 +j  -0.11299
220           3          0.55248 /_   71.8 =    0.17255 +j   0.52484
220           0      1.0777E-010 /_  131.8 =  -7.1828E-011 +j 8.0338E-011

ELEMENT = "Load.LOAD14"
230           1           1.9422 /_  -48.2 =     1.2946 +j   -1.4479
230           2           1.9422 /_ -168.2 =    -1.9012 +j  -0.39721
230           3           1.9422 /_   71.8 =     0.6066 +j    1.8451
230           0      3.7883E-010 /_  131.8 =  -2.525E-010 +j 2.8241E-010

ELEMENT = "Load.LOAD15"
240           1            2.499 /_  131.8 =    -1.6654 +j    1.8631
240           2            2.499 /_   11.8 =     2.4462 +j   0.51075
240           3            2.499 /_ -108.2 =    -0.7808 +j   -2.3739
240           0      4.8713E-010 /_  -48.2 =  3.2459E-010 +j -3.6324E-010

ELEMENT = "Load.LOAD16"
201           1           1.3484 /_  -48.2 =    0.89882 +j   -1.0051
201           2           1.3484 /_ -168.2 =    -1.3199 +j  -0.27584
201           3           1.3484 /_   71.8 =    0.42105 +j     1.281
201           0       2.631E-010 /_  131.8 =  -1.7538E-010 +j 1.9612E-010

ELEMENT = "Load.LOAD17"
211           1           2.0732 /_  -48.2 =      1.382 +j   -1.5454
211           2           2.0732 /_ -168.2 =    -2.0293 +j  -0.42411
211           3           2.0732 /_   71.8 =    0.64738 +j    1.9695
211           0      4.0452E-010 /_  131.8 =  -2.6966E-010 +j 3.0153E-010

ELEMENT = "Load.LOAD18"
221           1          0.23862 /_  131.8 =   -0.15905 +j   0.17789
221           2          0.23862 /_   11.8 =    0.23358 +j  0.048796
221           3          0.23862 /_ -108.2 =   -0.07453 +j  -0.22668
221           0      4.6541E-011 /_  -48.2 =  3.1019E-011 +j -3.4697E-011

ELEMENT = "Load.LOAD19"
231           1           2.1887 /_  131.8 =    -1.4587 +j    1.6317
231           2           2.1887 /_   11.8 =     2.1425 +j   0.44741
231           3           2.1887 /_ -108.2 =   -0.68377 +j   -2.0792
231           0      4.2674E-010 /_  -48.2 =  2.8437E-010 +j -3.1818E-010

ELEMENT = "Load.LOAD20"
241           1           2.1609 /_  131.8 =    -1.4401 +j     1.611
241           2           2.1609 /_   11.8 =     2.1152 +j   0.44166
241           3           2.1609 /_ -108.2 =   -0.67513 +j   -2.0527
241           0      4.2123E-010 /_  -48.2 =  2.8068E-010 +j -3.1409E-010

